Circuit: * C:\Users\Tyler\Desktop\2012 Rover\electrical\design\RF&Video\UHF_Video_TX\simulation\SPICE\loopFilter.asc


Date: Tue Jan 24 14:44:10 2012
Total elapsed time: 0.031 seconds.

tnom = 27
temp = 27
method = trap
totiter = 0
traniter = 0
tranpoints = 0
accept = 0
rejected = 0
matrix size = 5
fillins = 0
solver = Normal

