Circuit: * C:\Users\Tyler\Desktop\2012 Rover\electrical\design\UHF_Video_TX\simulation\SPICE\videoInput.asc

Direct Newton iteration for .op point succeeded.

Date: Wed Jan 04 14:04:55 2012
Total elapsed time: 0.090 seconds.

tnom = 27
temp = 27
method = trap
totiter = 20
traniter = 0
tranpoints = 0
accept = 0
rejected = 0
matrix size = 18
fillins = 22
solver = Normal
Matrix Compiler1:     141 opcodes
Matrix Compiler2: 2.36 KB object code size

