Circuit: * C:\Users\Tyler\Desktop\2012 Rover\electrical\design\UHF_Video_TX\simulation\SPICE\noiseExample.asc


Date: Tue Jan 03 19:44:23 2012
Total elapsed time: 0.026 seconds.

tnom = 27
temp = 27
method = trap
totiter = 0
traniter = 0
tranpoints = 0
accept = 0
rejected = 0
matrix size = 6
fillins = 2
solver = Normal

