Circuit: * C:\Users\Tyler\Desktop\2012 Rover\electrical\design\UHF_Video_TX\simulation\SPICE\X9313WSIFrequencyCompensation.asc


Date: Tue Jan 03 20:47:20 2012
Total elapsed time: 0.032 seconds.

tnom = 27
temp = 27
method = trap
totiter = 0
traniter = 0
tranpoints = 0
accept = 0
rejected = 0
matrix size = 3
fillins = 0
solver = Normal

